Version 4
SHEET 1 2000 1300
WIRE 304 -48 224 -48
WIRE 1072 -48 304 -48
WIRE 480 0 448 0
WIRE 608 0 544 0
WIRE 752 0 608 0
WIRE 752 16 752 0
WIRE 1072 32 1072 -48
WIRE 448 48 448 0
WIRE 608 48 608 0
WIRE 304 112 304 -48
WIRE 352 112 304 112
WIRE 720 112 704 112
WIRE 1024 112 720 112
WIRE 1360 112 1312 112
WIRE 1488 112 1440 112
WIRE 1696 112 1488 112
WIRE 1488 144 1488 112
WIRE 752 160 752 80
WIRE 1072 160 1072 128
WIRE 1072 160 752 160
WIRE 352 176 304 176
WIRE 720 176 720 112
WIRE 720 176 704 176
WIRE -496 224 -496 192
WIRE -496 224 -816 224
WIRE -416 224 -496 224
WIRE -320 224 -384 224
WIRE 1072 224 1072 160
WIRE 1072 224 992 224
WIRE -128 240 -256 240
WIRE 64 240 -128 240
WIRE 752 240 752 160
WIRE 752 240 704 240
WIRE 1072 240 1072 224
WIRE 1488 240 1488 208
WIRE -496 256 -496 224
WIRE -416 256 -416 224
WIRE -320 256 -416 256
WIRE 1696 272 1696 112
WIRE -816 288 -816 224
WIRE 992 304 992 224
WIRE 992 304 704 304
WIRE -384 320 -384 224
WIRE 1072 336 1072 320
WIRE 1072 336 992 336
WIRE 1136 336 1072 336
WIRE 1072 352 1072 336
WIRE 240 368 224 368
WIRE 320 368 304 368
WIRE 352 368 320 368
WIRE 992 368 992 336
WIRE 992 368 704 368
WIRE -816 400 -816 368
WIRE 320 432 320 368
WIRE 352 432 320 432
WIRE 720 432 704 432
WIRE 1024 432 720 432
WIRE 1072 464 1072 448
WIRE 720 496 720 432
WIRE 720 496 704 496
WIRE 528 544 528 528
WIRE 1376 560 1312 560
WIRE 1504 560 1456 560
WIRE 1696 560 1696 352
WIRE 1696 560 1504 560
WIRE 304 576 224 576
WIRE 1072 576 304 576
WIRE 1504 592 1504 560
WIRE 480 624 448 624
WIRE 608 624 544 624
WIRE 752 624 608 624
WIRE 752 640 752 624
WIRE 1072 656 1072 576
WIRE 448 672 448 624
WIRE 608 672 608 624
WIRE 1504 688 1504 656
WIRE 304 736 304 576
WIRE 352 736 304 736
WIRE 720 736 704 736
WIRE 1024 736 720 736
WIRE 752 784 752 704
WIRE 1072 784 1072 752
WIRE 1072 784 752 784
WIRE 352 800 304 800
WIRE 720 800 720 736
WIRE 720 800 704 800
WIRE 1072 848 1072 784
WIRE 1072 848 992 848
WIRE 752 864 752 784
WIRE 752 864 704 864
WIRE 1072 864 1072 848
WIRE 992 928 992 848
WIRE 992 928 704 928
WIRE 1072 960 1072 944
WIRE 1072 960 992 960
WIRE 1136 960 1072 960
WIRE 1072 976 1072 960
WIRE 240 992 224 992
WIRE 320 992 304 992
WIRE 352 992 320 992
WIRE 992 992 992 960
WIRE 992 992 704 992
WIRE 320 1056 320 992
WIRE 352 1056 320 1056
WIRE 720 1056 704 1056
WIRE 1024 1056 720 1056
WIRE 1072 1088 1072 1072
WIRE 720 1120 720 1056
WIRE 720 1120 704 1120
WIRE 528 1168 528 1152
FLAG -816 400 0
FLAG -496 336 -VDD
FLAG -496 112 +VDD
FLAG -288 208 +VDD
FLAG -288 272 -VDD
FLAG -784 0 -VDD
FLAG -704 0 +VDD
FLAG -128 240 c
FLAG -816 224 in
FLAG 1312 112 a+
FLAG -384 400 0
FLAG -784 80 0
FLAG -704 80 0
FLAG 1488 240 0
FLAG -384 224 t
FLAG 528 544 0
FLAG 1072 464 0
FLAG 224 368 0
FLAG 224 -48 +VDD
FLAG 1136 336 a+
FLAG 528 1168 0
FLAG 1072 1088 0
FLAG 224 992 0
FLAG 224 576 +VDD
FLAG 1136 960 a-
FLAG 1312 560 a-
FLAG 1504 688 0
FLAG 304 176 h
FLAG 304 800 o
FLAG 64 272 -VDD
FLAG 128 224 h
FLAG 128 256 o
FLAG 1696 560 s-
FLAG 1696 112 s+
SYMBOL voltage -816 272 R0
WINDOW 123 24 124 Left 2
WINDOW 39 0 0 Left 0
SYMATTR Value2 AC 1
SYMATTR InstName V1
SYMATTR Value SINE(-0.2 0.8 1k)
SYMBOL res -512 96 R0
SYMATTR InstName R1
SYMATTR Value 10k
SYMBOL res -512 240 R0
SYMATTR InstName R2
SYMATTR Value 10k
SYMBOL Comparators\\LT1721 -288 176 R0
SYMATTR InstName U1
SYMBOL ind 1344 128 R270
WINDOW 0 32 56 VTop 2
WINDOW 3 5 56 VBottom 2
SYMATTR InstName L1
SYMATTR Value 220µ
SYMBOL cap 1472 144 R0
SYMATTR InstName C1
SYMATTR Value 1µ
SYMBOL voltage -704 -16 R0
WINDOW 123 0 0 Left 0
WINDOW 39 0 0 Left 0
SYMATTR InstName V2
SYMATTR Value 5
SYMBOL voltage -784 96 R180
WINDOW 123 0 0 Left 0
WINDOW 39 0 0 Left 0
SYMATTR InstName V3
SYMATTR Value 5
SYMBOL voltage -384 304 R0
WINDOW 3 24 96 Left 1
WINDOW 123 0 0 Left 0
WINDOW 39 0 0 Left 0
SYMATTR Value PULSE(-1 1 0 5µ 5µ 1n 10µ)
SYMATTR InstName V4
SYMBOL PowerProducts\\LT1158 528 288 R0
SYMATTR InstName U2
SYMBOL schottky 480 16 R270
WINDOW 0 32 32 VTop 2
WINDOW 3 0 32 VBottom 2
SYMATTR InstName D1
SYMATTR Value BAT54
SYMATTR Description Diode
SYMATTR Type diode
SYMBOL nmos 1024 32 R0
SYMATTR InstName Q1
SYMATTR Value IRF530
SYMBOL cap 736 80 M180
WINDOW 0 24 64 Left 2
WINDOW 3 24 8 Left 2
SYMATTR InstName C3
SYMATTR Value .1µ
SYMBOL nmos 1024 352 R0
SYMATTR InstName Q2
SYMATTR Value IRF530
SYMBOL res 1056 224 R0
SYMATTR InstName R3
SYMATTR Value 4m
SYMBOL cap 304 352 R90
WINDOW 0 0 32 VBottom 2
WINDOW 3 32 32 VTop 2
SYMATTR InstName C5
SYMATTR Value .1µ
SYMBOL PowerProducts\\LT1158 528 912 R0
SYMATTR InstName U3
SYMBOL schottky 480 640 R270
WINDOW 0 32 32 VTop 2
WINDOW 3 0 32 VBottom 2
SYMATTR InstName D2
SYMATTR Value BAT54
SYMATTR Description Diode
SYMATTR Type diode
SYMBOL nmos 1024 656 R0
SYMATTR InstName Q3
SYMATTR Value IRF530
SYMBOL cap 736 704 M180
WINDOW 0 24 64 Left 2
WINDOW 3 24 8 Left 2
SYMATTR InstName C4
SYMATTR Value .1µ
SYMBOL nmos 1024 976 R0
SYMATTR InstName Q4
SYMATTR Value IRF530
SYMBOL res 1056 848 R0
SYMATTR InstName R4
SYMATTR Value 4m
SYMBOL cap 304 976 R90
WINDOW 0 0 32 VBottom 2
WINDOW 3 32 32 VTop 2
SYMATTR InstName C6
SYMATTR Value .1µ
SYMBOL ind 1360 576 R270
WINDOW 0 32 56 VTop 2
WINDOW 3 5 56 VBottom 2
SYMATTR InstName L2
SYMATTR Value 220µ
SYMBOL cap 1488 592 R0
SYMATTR InstName C7
SYMATTR Value 1µ
SYMBOL Digital\\buf 64 176 R0
WINDOW 3 -70 174 Left 1
SYMATTR Value vt=5 vhigh=10 vlow=0
SYMATTR InstName A1
SYMBOL res 1680 256 R0
SYMATTR InstName R5
SYMATTR Value 100
TEXT -808 144 Left 2 ;Input signal
TEXT -344 360 Left 1 ;Local Triangle oscillator
TEXT -536 -144 Left 2 !.tran 0 10m 8m
TEXT -536 -112 Left 2 !.four 1kHz 10 V(s+,s-)
TEXT -536 -80 Left 2 !;ac dec 100 10 100Meg
TEXT -536 -48 Left 2 !;noise V(s+,s-) V1 dec 100 10 10000k
TEXT -808 -96 Left 2 ;Power Supply
TEXT -392 -176 Left 2 ;Analyse
TEXT -416 16 Left 2 ;Comparator
TEXT 952 -112 Left 2 ;Switch/Mosfet
TEXT 1368 32 Left 2 ;Low-Pass Filter
TEXT 1672 32 Left 2 ;Speaker
TEXT 360 -112 Left 2 ;Mosfet Driver
RECTANGLE Normal -592 432 -880 160 2
RECTANGLE Normal -96 432 -544 32 2
RECTANGLE Normal 848 1216 -16 -96 2
RECTANGLE Normal 1584 736 1328 48 2
RECTANGLE Normal -592 -80 -880 112 2
RECTANGLE Normal -96 -32 -544 -160 2
RECTANGLE Normal 1824 736 1616 48 2
RECTANGLE Normal 1200 1216 896 -96 2
